ATP_C2
  PyMOL2.4          3D                             0

 39 41  0  0  0  0  0  0  0  0999 V2000
   56.2080   67.5840   74.0330 N   0  0  0  0  0  0  0  0  0  0  0  0
   54.0420   66.5080   73.4910 N   0  0  0  0  0  0  0  0  0  0  0  0
   54.2700   64.7350   71.8840 N   0  0  0  0  0  0  0  0  0  0  0  0
   57.4680   66.2880   72.6580 N   0  0  0  0  0  0  0  0  0  0  0  0
   56.2760   64.2060   71.0390 N   0  0  0  0  0  0  0  0  0  0  0  0
   56.2430   70.8530   75.1750 C   0  0  0  0  0  0  0  0  0  0  0  0
   56.7310   70.2130   76.4800 C   0  0  0  0  0  0  0  0  0  0  0  0
   56.9430   68.7630   76.0570 C   0  0  0  0  0  0  0  0  0  0  0  0
   55.8440   68.5820   75.0040 C   0  0  0  0  0  0  0  0  0  0  0  0
   55.3600   66.7030   73.4160 C   0  0  0  0  0  0  0  0  0  0  0  0
   56.1750   65.9320   72.5840 C   0  0  0  0  0  0  0  0  0  0  0  0
   53.5760   65.5240   72.7130 C   0  0  0  0  0  0  0  0  0  0  0  0
   55.5930   64.9310   71.8080 C   0  0  0  0  0  0  0  0  0  0  0  0
   57.4580   67.2900   73.5500 C   0  0  0  0  0  0  0  0  0  0  0  0
   57.3690   71.4480   74.3190 C   0  0  0  0  0  0  0  0  0  0  0  0
   55.6020   69.8440   74.4220 O   0  0  0  0  0  0  0  0  0  0  0  0
   55.7040   70.2680   77.4410 O   0  0  0  0  0  0  0  0  0  0  0  0
   56.7660   67.9060   77.1570 O   0  0  0  0  0  0  0  0  0  0  0  0
   58.2310   72.1740   75.1650 O   0  0  0  0  0  0  0  0  0  0  0  0
   59.3190   74.3730   74.3500 O   0  0  0  0  0  0  0  0  0  0  0  0
   58.4690   74.3700   76.8510 O   0  0  0  0  0  0  0  0  0  0  0  0
   56.7090   74.1970   74.8220 O   0  0  0  0  0  0  0  0  0  0  0  0
   55.9470   73.5240   77.2260 O   0  0  0  0  0  0  0  0  0  0  0  0
   54.1070   74.5170   75.6100 O   0  0  0  0  0  0  0  0  0  0  0  0
   56.1490   76.0540   76.5030 O   0  0  0  0  0  0  0  0  0  0  0  0
   56.0780   78.5490   75.9090 O   0  0  0  0  0  0  0  0  0  0  0  0
   57.5420   76.9650   74.2960 O   0  0  0  0  0  0  0  0  0  0  0  0
   54.7380   76.7330   74.3100 O   0  0  0  0  0  0  0  0  0  0  0  0
   58.1750   73.7620   75.2480 P   0  0  0  0  0  0  0  0  0  0  0  0
   55.7870   74.5730   76.0580 P   0  0  0  0  0  0  0  0  0  0  0  0
   56.1260   77.0860   75.2990 P   0  0  0  0  0  0  0  0  0  0  0  0
   55.7610   63.4980   70.5110 H   0  0  0  0  0  0  0  0  0  0  0  0
   57.2790   64.3980   71.0250 H   0  0  0  0  0  0  0  0  0  0  0  0
   56.0940   70.0250   78.2680 H   0  0  0  0  0  0  0  0  0  0  0  0
   57.6260   67.7620   77.5220 H   0  0  0  0  0  0  0  0  0  0  0  0
   59.0640   73.7860   77.3070 H   0  0  0  0  0  0  0  0  0  0  0  0
   53.9110   73.6730   75.2190 H   0  0  0  0  0  0  0  0  0  0  0  0
   58.3000   77.2700   74.7810 H   0  0  0  0  0  0  0  0  0  0  0  0
   54.7410   75.8120   74.0790 H   0  0  0  0  0  0  0  0  0  0  0  0
  1  9  1  0  0  0  0
  1 10  1  0  0  0  0
  1 14  1  0  0  0  0
  2 10  1  0  0  0  0
  2 12  1  0  0  0  0
  3 12  1  0  0  0  0
  3 13  1  0  0  0  0
  4 11  1  0  0  0  0
  4 14  1  0  0  0  0
  5 13  1  0  0  0  0
  5 32  1  0  0  0  0
  5 33  1  0  0  0  0
  6  7  1  0  0  0  0
  6 15  1  0  0  0  0
  6 16  2  0  0  0  0
  7  8  1  0  0  0  0
  7 17  2  0  0  0  0
  8  9  1  0  0  0  0
  8 18  2  0  0  0  0
  9 16  2  0  0  0  0
 10 11  1  0  0  0  0
 11 13  1  0  0  0  0
 15 19  2  0  0  0  0
 17 34  1  0  0  0  0
 18 35  1  0  0  0  0
 19 29  1  0  0  0  0
 20 29  1  0  0  0  0
 21 29  1  0  0  0  0
 21 36  1  0  0  0  0
 22 29  1  0  0  0  0
 22 30  1  0  0  0  0
 23 30  1  0  0  0  0
 24 30  1  0  0  0  0
 24 37  1  0  0  0  0
 25 30  1  0  0  0  0
 25 31  1  0  0  0  0
 26 31  1  0  0  0  0
 27 31  1  0  0  0  0
 27 38  1  0  0  0  0
 28 31  1  0  0  0  0
 28 39  1  0  0  0  0
M  END
>  <pdb_header>


$$$$
C1_C1
  PyMOL2.4          3D                             0

 48 51  0  0  0  0  0  0  0  0999 V2000
   58.6830   77.0490   66.1790 N   0  0  0  0  0  0  0  0  0  0  0  0
   56.5680   77.0180   65.4430 N   0  0  0  0  0  0  0  0  0  0  0  0
   55.9470   76.1230   68.9680 N   0  0  0  0  0  0  0  0  0  0  0  0
   58.2460   76.4590   68.4490 N   0  0  0  0  0  0  0  0  0  0  0  0
   57.6750   75.8700   70.5940 N   0  0  0  0  0  0  0  0  0  0  0  0
   61.3700   76.9710   64.2720 C   0  0  0  0  0  0  0  0  0  0  0  0
   60.9750   75.5750   64.7720 C   0  0  0  0  0  0  0  0  0  0  0  0
   60.9800   75.8510   66.2770 C   0  0  0  0  0  0  0  0  0  0  0  0
   60.1730   77.1800   66.2640 C   0  0  0  0  0  0  0  0  0  0  0  0
   57.8490   77.2150   65.1010 C   0  0  0  0  0  0  0  0  0  0  0  0
   56.5830   76.7070   66.7570 C   0  0  0  0  0  0  0  0  0  0  0  0
   55.4970   76.3880   67.6970 C   0  0  0  0  0  0  0  0  0  0  0  0
   57.8940   76.7150   67.2500 C   0  0  0  0  0  0  0  0  0  0  0  0
   57.3190   76.1680   69.2730 C   0  0  0  0  0  0  0  0  0  0  0  0
   61.1390   77.1870   62.7720 C   0  0  0  0  0  0  0  0  0  0  0  0
   63.2190   75.3770   67.3390 C   0  0  0  0  0  0  0  0  0  0  0  0
   64.4530   75.0980   66.7340 C   0  0  0  0  0  0  0  0  0  0  0  0
   65.3900   74.3120   67.4180 C   0  0  0  0  0  0  0  0  0  0  0  0
   65.1060   73.8120   68.6880 C   0  0  0  0  0  0  0  0  0  0  0  0
   63.8820   74.0960   69.2880 C   0  0  0  0  0  0  0  0  0  0  0  0
   62.9430   74.8780   68.6160 C   0  0  0  0  0  0  0  0  0  0  0  0
   60.5620   77.8640   65.0500 O   0  0  0  0  0  0  0  0  0  0  0  0
   54.3340   76.3640   67.3810 O   0  0  0  0  0  0  0  0  0  0  0  0
   61.8710   74.5490   64.3770 O   0  0  0  0  0  0  0  0  0  0  0  0
   60.9530   75.9510   62.0950 O   0  0  0  0  0  0  0  0  0  0  0  0
   62.9920   76.3810   60.3590 O   0  0  0  0  0  0  0  0  0  0  0  0
   62.9880   73.9490   61.6070 O   0  0  0  0  0  0  0  0  0  0  0  0
   61.0970   74.6980   59.3940 O   0  0  0  0  0  0  0  0  0  0  0  0
   58.8930   73.7790   58.1530 O   0  0  0  0  0  0  0  0  0  0  0  0
   58.5790   74.2890   60.8860 O   0  0  0  0  0  0  0  0  0  0  0  0
   60.1400   71.9620   59.8090 O   0  0  0  0  0  0  0  0  0  0  0  0
   60.5430   69.6720   61.3630 O   0  0  0  0  0  0  0  0  0  0  0  0
   62.7960   71.0310   60.6420 O   0  0  0  0  0  0  0  0  0  0  0  0
   60.9780   72.0850   62.6570 O   0  0  0  0  0  0  0  0  0  0  0  0
   62.3290   76.1340   66.6390 O   0  0  0  0  0  0  0  0  0  0  0  0
   64.6960   75.6040   65.4870 O   0  0  0  0  0  0  0  0  0  0  0  0
   62.0230   75.2500   60.8310 P   0  0  0  0  0  0  0  0  0  0  0  0
   59.6110   73.7100   59.5420 P   0  0  0  0  0  0  0  0  0  0  0  0
   61.0930   71.1260   61.1570 P   0  0  0  0  0  0  0  0  0  0  0  0
   58.6920   75.8760   70.7340 H   0  0  0  0  0  0  0  0  0  0  0  0
   55.3150   75.8780   69.7350 H   0  0  0  0  0  0  0  0  0  0  0  0
   56.9140   75.5980   71.2250 H   0  0  0  0  0  0  0  0  0  0  0  0
   62.7120   74.7130   64.7920 H   0  0  0  0  0  0  0  0  0  0  0  0
   62.6000   73.0730   61.5620 H   0  0  0  0  0  0  0  0  0  0  0  0
   58.4270   75.2180   61.0260 H   0  0  0  0  0  0  0  0  0  0  0  0
   63.0320   70.8540   59.7370 H   0  0  0  0  0  0  0  0  0  0  0  0
   61.7470   72.4090   63.1120 H   0  0  0  0  0  0  0  0  0  0  0  0
   64.9300   76.5130   65.3030 H   0  0  0  0  0  0  0  0  0  0  0  0
  1  9  1  0  0  0  0
  1 10  1  0  0  0  0
  1 13  1  0  0  0  0
  2 10  1  0  0  0  0
  2 11  1  0  0  0  0
  3 12  1  0  0  0  0
  3 14  1  0  0  0  0
  3 41  1  0  0  0  0
  4 13  1  0  0  0  0
  4 14  1  0  0  0  0
  5 14  1  0  0  0  0
  5 40  1  0  0  0  0
  5 42  1  0  0  0  0
  6  7  1  0  0  0  0
  6 15  1  0  0  0  0
  6 22  2  0  0  0  0
  7  8  1  0  0  0  0
  7 24  2  0  0  0  0
  8  9  1  0  0  0  0
  8 35  2  0  0  0  0
  9 22  2  0  0  0  0
 11 12  1  0  0  0  0
 11 13  1  0  0  0  0
 12 23  2  0  0  0  0
 15 25  2  0  0  0  0
 16 17  1  0  0  0  0
 16 21  1  0  0  0  0
 16 35  2  0  0  0  0
 17 18  1  0  0  0  0
 17 36  2  0  0  0  0
 18 19  1  0  0  0  0
 19 20  1  0  0  0  0
 20 21  1  0  0  0  0
 24 43  1  0  0  0  0
 25 37  1  0  0  0  0
 26 37  1  0  0  0  0
 27 37  1  0  0  0  0
 27 44  1  0  0  0  0
 28 37  1  0  0  0  0
 28 38  1  0  0  0  0
 29 38  1  0  0  0  0
 30 38  1  0  0  0  0
 30 45  1  0  0  0  0
 31 38  1  0  0  0  0
 31 39  1  0  0  0  0
 32 39  1  0  0  0  0
 33 39  1  0  0  0  0
 33 46  1  0  0  0  0
 34 39  1  0  0  0  0
 34 47  1  0  0  0  0
 36 48  1  0  0  0  0
M  END
>  <pdb_header>


$$$$
