# created with PyMOL 2.5.4
@<TRIPOS>MOLECULE
ATP_C2
39 41 1                 
SMALL
USER_CHARGES
@<TRIPOS>ATOM
1	   N	56.208	67.584	74.033	N.pl3	1	UNK0	0.000	
2	   N	54.042	66.508	73.491	N.3	1	UNK0	0.000	
3	   N	54.270	64.735	71.884	N.3	1	UNK0	0.000	
4	   N	57.468	66.288	72.658	N.3	1	UNK0	0.000	
5	   N	56.276	64.206	71.039	N.3	1	UNK0	0.000	
6	   C	56.243	70.853	75.175	C.2	1	UNK0	0.000	
7	   C	56.731	70.213	76.480	C.2	1	UNK0	0.000	
8	   C	56.943	68.763	76.057	C.2	1	UNK0	0.000	
9	   C	55.844	68.582	75.004	C.2	1	UNK0	0.000	
10	   C	55.360	66.703	73.416	C.3	1	UNK0	0.000	
11	   C	56.175	65.932	72.584	C.3	1	UNK0	0.000	
12	   C	53.576	65.524	72.713	C.3	1	UNK0	0.000	
13	   C	55.593	64.931	71.808	C.3	1	UNK0	0.000	
14	   C	57.458	67.290	73.550	C.3	1	UNK0	0.000	
15	   C	57.369	71.448	74.319	C.2	1	UNK0	0.000	
16	   O	55.602	69.844	74.422	O.2	1	UNK0	0.000	
17	   O	55.704	70.268	77.441	O.2	1	UNK0	0.000	
18	   O	56.766	67.906	77.157	O.2	1	UNK0	0.000	
19	   O	58.231	72.174	75.165	O.2	1	UNK0	0.000	
20	   O	59.319	74.373	74.350	O.co2	1	UNK0	0.000	
21	   O	58.469	74.370	76.851	O.3	1	UNK0	0.000	
22	   O	56.709	74.197	74.822	O.3	1	UNK0	0.000	
23	   O	55.947	73.524	77.226	O.co2	1	UNK0	0.000	
24	   O	54.107	74.517	75.610	O.3	1	UNK0	0.000	
25	   O	56.149	76.054	76.503	O.3	1	UNK0	0.000	
26	   O	56.078	78.549	75.909	O.co2	1	UNK0	0.000	
27	   O	57.542	76.965	74.296	O.3	1	UNK0	0.000	
28	   O	54.738	76.733	74.310	O.3	1	UNK0	0.000	
29	   P	58.175	73.762	75.248	P.3	1	UNK0	0.000	
30	   P	55.787	74.573	76.058	P.3	1	UNK0	0.000	
31	   P	56.126	77.086	75.299	P.3	1	UNK0	0.000	
32	   H	55.761	63.498	70.511	 H	1	UNK0	0.000	
33	   H	57.279	64.398	71.025	 H	1	UNK0	0.000	
34	   H	56.094	70.025	78.268	 H	1	UNK0	0.000	
35	   H	57.626	67.762	77.522	 H	1	UNK0	0.000	
36	   H	59.064	73.786	77.307	 H	1	UNK0	0.000	
37	   H	53.911	73.673	75.219	 H	1	UNK0	0.000	
38	   H	58.300	77.270	74.781	 H	1	UNK0	0.000	
39	   H	54.741	75.812	74.079	 H	1	UNK0	0.000	
@<TRIPOS>BOND
1 1 9 1
2 1 10 1
3 1 14 1
4 2 10 1
5 2 12 1
6 3 12 1
7 3 13 1
8 4 11 1
9 4 14 1
10 5 13 1
11 5 32 1
12 5 33 1
13 6 7 1
14 6 15 1
15 6 16 2
16 7 8 1
17 7 17 2
18 8 9 1
19 8 18 2
20 9 16 2
21 10 11 1
22 11 13 1
23 15 19 2
24 17 34 1
25 18 35 1
26 19 29 1
27 20 29 1
28 21 29 1
29 21 36 1
30 22 29 1
31 22 30 1
32 23 30 1
33 24 30 1
34 24 37 1
35 25 30 1
36 25 31 1
37 26 31 1
38 27 31 1
39 27 38 1
40 28 31 1
41 28 39 1
@<TRIPOS>SUBSTRUCTURE
1	UNK0	1	GROUP	1 ****	UNK
